%nprocshared=2
%mem=6GB
# opt=(cartesian,maxcyc=1000) pm6 nosymm scf=qc geom=connectivity

PES job

0 1
 C               -1    0.55654943   -0.74418402    0.00000900
 C                0    1.95829943   -0.74418402    0.00000900
 C                0    2.38229743    0.62661198    0.00000900
 C               -1    1.22524043    1.41806498   -0.00009500
 N               -1    0.11682243    0.86702500    0.00000000
 H               -1    [$1]     [$2]   -0.85000000
 H                0   -0.14503857   -1.57741702    0.00010700
 H                0    2.60267243   -1.61689002    0.00003400
 H                0    3.40686043    0.98310398   -0.00001600
 N                0    1.07824202    2.88069666   -0.00029339
 H                0    1.51385269    3.25959972    0.81620879
 H                0    1.51404859    3.25939792   -0.81678465

 1 2 2.0 5 1.0 7 1.0
 2 3 1.0 8 1.0
 3 4 2.0 9 1.0
 4 5 1.0 10 1.0
 5
 6
 7
 8
 9
 10 11 1.0 12 1.0
 11
 12

